/*--------------------------------*- C++ -*----------------------------------*\
| =========                 |                                                 |
| \\      /  F ield         | OpenFOAM: The Open Source CFD Toolbox           |
|  \\    /   O peration     | Version:  dev                                   |
|   \\  /    A nd           | Web:      www.OpenFOAM.org                      |
|    \\/     M anipulation  |                                                 |
\*---------------------------------------------------------------------------*/
FoamFile
{
    version     2.0;
    format      ascii;
    class       polyBoundaryMesh;
    location    "constant/polyMesh";
    object      boundary;
}
// * * * * * * * * * * * * * * * * * * * * * * * * * * * * * * * * * * * * * //

9
(
    inlet
    {
        type            patch;
        nFaces          15;
        startFace       881;
    }
    outlet
    {
        type            patch;
        nFaces          0;
        startFace       896;
    }
    flap
    {
        type            wall;
        inGroups        1(wall);
        nFaces          0;
        startFace       896;
    }
    upperWall
    {
        type            wall;
        inGroups        1(wall);
        nFaces          0;
        startFace       896;
    }
    lowerWall
    {
        type            wall;
        inGroups        1(wall);
        nFaces          21;
        startFace       896;
    }
    frontAndBack
    {
        type            empty;
        inGroups        1(empty);
        nFaces          930;
        startFace       917;
    }
    procBoundary3to0
    {
        type            processor;
        inGroups        1(processor);
        nFaces          34;
        startFace       1847;
        matchTolerance  0.0001;
        transform       unknown;
        myProcNo        3;
        neighbProcNo    0;
    }
    procBoundary3to1
    {
        type            processor;
        inGroups        1(processor);
        nFaces          9;
        startFace       1881;
        matchTolerance  0.0001;
        transform       unknown;
        myProcNo        3;
        neighbProcNo    1;
    }
    procBoundary3to4
    {
        type            processor;
        inGroups        1(processor);
        nFaces          19;
        startFace       1890;
        matchTolerance  0.0001;
        transform       unknown;
        myProcNo        3;
        neighbProcNo    4;
    }
)

// ************************************************************************* //
