/*--------------------------------*- C++ -*----------------------------------*\
| =========                 |                                                 |
| \\      /  F ield         | OpenFOAM: The Open Source CFD Toolbox           |
|  \\    /   O peration     | Version:  dev                                   |
|   \\  /    A nd           | Web:      www.OpenFOAM.org                      |
|    \\/     M anipulation  |                                                 |
\*---------------------------------------------------------------------------*/
FoamFile
{
    version     2.0;
    format      ascii;
    class       polyBoundaryMesh;
    location    "constant/polyMesh";
    object      boundary;
}
// * * * * * * * * * * * * * * * * * * * * * * * * * * * * * * * * * * * * * //

10
(
    inlet
    {
        type            patch;
        nFaces          0;
        startFace       865;
    }
    outlet
    {
        type            patch;
        nFaces          0;
        startFace       865;
    }
    flap
    {
        type            wall;
        inGroups        1(wall);
        nFaces          33;
        startFace       865;
    }
    upperWall
    {
        type            wall;
        inGroups        1(wall);
        nFaces          0;
        startFace       898;
    }
    lowerWall
    {
        type            wall;
        inGroups        1(wall);
        nFaces          19;
        startFace       898;
    }
    frontAndBack
    {
        type            empty;
        inGroups        1(empty);
        nFaces          930;
        startFace       917;
    }
    procBoundary4to1
    {
        type            processor;
        inGroups        1(processor);
        nFaces          30;
        startFace       1847;
        matchTolerance  0.0001;
        transform       unknown;
        myProcNo        4;
        neighbProcNo    1;
    }
    procBoundary4to2
    {
        type            processor;
        inGroups        1(processor);
        nFaces          11;
        startFace       1877;
        matchTolerance  0.0001;
        transform       unknown;
        myProcNo        4;
        neighbProcNo    2;
    }
    procBoundary4to3
    {
        type            processor;
        inGroups        1(processor);
        nFaces          19;
        startFace       1888;
        matchTolerance  0.0001;
        transform       unknown;
        myProcNo        4;
        neighbProcNo    3;
    }
    procBoundary4to5
    {
        type            processor;
        inGroups        1(processor);
        nFaces          18;
        startFace       1907;
        matchTolerance  0.0001;
        transform       unknown;
        myProcNo        4;
        neighbProcNo    5;
    }
)

// ************************************************************************* //
