/*--------------------------------*- C++ -*----------------------------------*\
| =========                 |                                                 |
| \\      /  F ield         | OpenFOAM: The Open Source CFD Toolbox           |
|  \\    /   O peration     | Version:  dev                                   |
|   \\  /    A nd           | Web:      www.OpenFOAM.org                      |
|    \\/     M anipulation  |                                                 |
\*---------------------------------------------------------------------------*/
FoamFile
{
    version     2.0;
    format      ascii;
    class       polyBoundaryMesh;
    location    "constant/polyMesh";
    object      boundary;
}
// * * * * * * * * * * * * * * * * * * * * * * * * * * * * * * * * * * * * * //

8
(
    inlet
    {
        type            patch;
        nFaces          0;
        startFace       879;
    }
    outlet
    {
        type            patch;
        nFaces          30;
        startFace       879;
    }
    flap
    {
        type            wall;
        inGroups        1(wall);
        nFaces          0;
        startFace       909;
    }
    upperWall
    {
        type            wall;
        inGroups        1(wall);
        nFaces          0;
        startFace       909;
    }
    lowerWall
    {
        type            wall;
        inGroups        1(wall);
        nFaces          20;
        startFace       909;
    }
    frontAndBack
    {
        type            empty;
        inGroups        1(empty);
        nFaces          930;
        startFace       929;
    }
    procBoundary5to2
    {
        type            processor;
        inGroups        1(processor);
        nFaces          34;
        startFace       1859;
        matchTolerance  0.0001;
        transform       unknown;
        myProcNo        5;
        neighbProcNo    2;
    }
    procBoundary5to4
    {
        type            processor;
        inGroups        1(processor);
        nFaces          18;
        startFace       1893;
        matchTolerance  0.0001;
        transform       unknown;
        myProcNo        5;
        neighbProcNo    4;
    }
)

// ************************************************************************* //
